*Q1_NMOS
.include bsim.lib
VDD vd 0 DC 1.8
RD vd vout 1k
VG vin 0 DC 1.8
M1 vout vin 0 0 BSIM3_180nm_N W=0.36u L=0.18u

.dc VDD 0 1.8 0.3 VG 0 1.8 0.3
.control
run
plot -VDD#BRANCH
.endc
.end



