
.include bsim.lib
vdd 3 0 DC 1.8
vin 2 0 DC 0
M1 1 2 3 3 BSIM3_180nm_P W=0.36u L=0.18u
M2 1 2 0 0 BSIM3_180nm_N W=0.36u L=0.18u

M3 4 2 3 3 BSIM3_180nm_P W=0.8u L=0.18u
M4 4 2 0 0 BSIM3_180nm_N W=0.36u L=0.18u

M5 5 2 3 3 BSIM3_180nm_P W=1.44u L=0.18u
M6 5 2 0 0 BSIM3_180nm_N W=0.36u L=0.18u


.dc vin 0 1.8 0.05 
*vdd 0 1.8 0.6
.control
run
plot v(4) v(1) v(5)
.endc
.end

