* SPICE3 file created from dflipflop.ext - technology: scmos

.option scale=0.09u
.include MagicNames.txt

Vdd vdd 0 dc 1.8
VG1 clk 0 pulse(0 1.8 1000p 10p 10p 450p 900p)

VG2 d 0 pulse(0 1.8 600p 10p 10p 5000p 6000p)

.global vdd gnd 

.subckt transgate trans_clkp trans_vin trans_clkn trans_vout trans_vdd trans_gnd w_n16_15#
M1000 trans_vout trans_clkn trans_vin Gnd nfet w=4 l=2
+  ad=20 pd=18 as=20 ps=18
M1001 trans_vout trans_clkp trans_vin w_n16_15# pfet w=8 l=2
+  ad=40 pd=26 as=40 ps=26

.ends

.subckt invertor inv_vdd inv_vin inv_vout inv_gnd
M1000 inv_vout inv_vin inv_gnd Gnd nfet w=4 l=2
+  ad=20 pd=18 as=20 ps=18
M1001 inv_vout inv_vin inv_vdd inv_vdd pfet w=8 l=2
+  ad=40 pd=26 as=40 ps=26

.ends

.subckt tristate tri_vin tri_vout tri_clkp tri_clkn tri_vdd tri_gnd tri_int
Xinvertor_0 tri_vdd tri_vin tri_int tri_gnd invertor
Xtransgate_0 tri_clkp tri_int tri_clkn tri_vout tri_vdd tri_gnd tri_vdd transgate

.ends


* Top level circuit ff_try
Xtransgate_1 clkn inv2_vout clk try2_vout vdd gnd vdd transgate
Xtristate_0 inv2_vout tryst1_vout clkn clk vdd gnd 1
+ tristate
Xtristate_1 inv3_vout try2_vout clk clkn vdd gnd 2
+ tristate
Xinvertor_0 vdd clk clkn gnd invertor
Xinvertor_1 vdd d inv1_vout gnd invertor
Xinvertor_2 vdd tryst1_vout inv2_vout gnd invertor
Xinvertor_3 vdd try2_vout inv3_vout gnd invertor
Xinvertor_4 vdd inv3_vout qout gnd invertor
Xtransgate_0 clk inv1_vout clkn tryst1_vout vdd gnd vdd transgate


Xinvertor_5 vdd qout in5 gnd invertor
Xinvertor_6 vdd in5 in6 gnd invertor
Xinvertor_7 vdd in6 in7 gnd invertor
Xinvertor_8 vdd in7 in8 gnd invertor
Xinvertor_9 vdd in8 in9 gnd invertor
Xinvertor_10 vdd in9 in10 gnd invertor
Xinvertor_11 vdd in10 in11 gnd invertor
Xinvertor_12 vdd in11 in12 gnd invertor
Xinvertor_13 vdd in12 in13 gnd invertor
Xinvertor_14 vdd in13 in14 gnd invertor
Xinvertor_15 vdd in14 in15 gnd invertor


* Top level circuit ff_try
Xtransgate_21 clkn inv22_vout clk try22_vout vdd gnd vdd transgate
Xtristate_20 inv22_vout tryst21_vout clkn clk vdd gnd 3
+ tristate
Xtristate_21 inv23_vout try22_vout clk clkn vdd gnd 4
+ tristate
Xinvertor_20 vdd clk clkn gnd invertor
Xinvertor_21 vdd in15 inv21_vout gnd invertor
Xinvertor_22 vdd tryst21_vout inv22_vout gnd invertor
Xinvertor_23 vdd try22_vout inv23_vout gnd invertor
Xinvertor_24 vdd inv23_vout out gnd invertor
Xtransgate_20 clk inv21_vout clkn tryst21_vout vdd gnd vdd transgate



.tran 1p 7000p
.control
run
Plot clk d out
.endc
.end
